gem5 Simulator System.  http://gem5.org
gem5 is copyrighted software; use the --copyright option for details.

gem5 compiled Jun 23 2019 07:04:02
gem5 started Jun 23 2019 08:11:40
gem5 executing on gem5-new, pid 29752
command line: ./build/X86/gem5.opt configs/example/se_try.py -I 50000000 --caches --l1d_size=32kB --l1d_assoc=2 --l1i_size=32kB --l1i_assoc=2 --l2cache --l2_size=256kB --l2_assoc=8 --cacheline_size=64 --cpu-type=DerivO3CPU --mem-type=SimpleMemory --mem-size=8192MB -n 1 --maxinsts=10000000 --bench=perlbench

info: Standard input is not a terminal, disabling listeners.
Selected SPEC_CPU2006 benchmark
--> perlbench
Global frequency set at 1000000000000 ticks per second
fatal: Can't load object file /home/cc/spec2006_1/benchspec/CPU2006/400.perlbench/exe/perlbench_base.amd64-m64-gcc43-nn
Memory Usage: 8475984 KBytes
gem5 Simulator System.  http://gem5.org
gem5 is copyrighted software; use the --copyright option for details.

gem5 compiled Jun 23 2019 07:04:02
gem5 started Jun 23 2019 08:11:40
gem5 executing on gem5-new, pid 29754
command line: ./build/X86/gem5.opt configs/example/se_try.py -I 50000000 --caches --l1d_size=32kB --l1d_assoc=2 --l1i_size=32kB --l1i_assoc=2 --l2cache --l2_size=256kB --l2_assoc=8 --cacheline_size=64 --cpu-type=DerivO3CPU --mem-type=SimpleMemory --mem-size=8192MB -n 1 --maxinsts=10000000 --bench=perlbench --prefetchers stride

info: Standard input is not a terminal, disabling listeners.
Selected SPEC_CPU2006 benchmark
--> perlbench
***USING Stride Prefetcher!***
Global frequency set at 1000000000000 ticks per second
fatal: Can't load object file /home/cc/spec2006_1/benchspec/CPU2006/400.perlbench/exe/perlbench_base.amd64-m64-gcc43-nn
Memory Usage: 8475988 KBytes
gem5 Simulator System.  http://gem5.org
gem5 is copyrighted software; use the --copyright option for details.

gem5 compiled Jun 23 2019 07:04:02
gem5 started Jun 23 2019 08:11:41
gem5 executing on gem5-new, pid 29756
command line: ./build/X86/gem5.opt configs/example/se_try.py -I 50000000 --caches --l1d_size=32kB --l1d_assoc=2 --l1i_size=32kB --l1i_assoc=2 --l2cache --l2_size=256kB --l2_assoc=8 --cacheline_size=64 --cpu-type=DerivO3CPU --mem-type=SimpleMemory --mem-size=8192MB -n 1 --maxinsts=10000000 --bench=perlbench --prefetchers tagged

info: Standard input is not a terminal, disabling listeners.
Selected SPEC_CPU2006 benchmark
--> perlbench
***USING Tagged Prefetcher!***
Global frequency set at 1000000000000 ticks per second
fatal: Can't load object file /home/cc/spec2006_1/benchspec/CPU2006/400.perlbench/exe/perlbench_base.amd64-m64-gcc43-nn
Memory Usage: 8475988 KBytes
gem5 Simulator System.  http://gem5.org
gem5 is copyrighted software; use the --copyright option for details.

gem5 compiled Jun 23 2019 07:04:02
gem5 started Jun 23 2019 08:11:41
gem5 executing on gem5-new, pid 29758
command line: ./build/X86/gem5.opt configs/example/se_try.py -I 50000000 --caches --l1d_size=32kB --l1d_assoc=2 --l1i_size=32kB --l1i_assoc=2 --l2cache --l2_size=256kB --l2_assoc=8 --cacheline_size=64 --cpu-type=DerivO3CPU --mem-type=SimpleMemory --mem-size=8192MB -n 1 --maxinsts=10000000 --bench=bzip2

info: Standard input is not a terminal, disabling listeners.
Selected SPEC_CPU2006 benchmark
--> bzip2
Global frequency set at 1000000000000 ticks per second
using this cacche!!!!!!!!!!!!!##############
using this cacche!!!!!!!!!!!!!##############
using this cacche!!!!!!!!!!!!!##############
using this cacche!!!!!!!!!!!!!##############
using this cacche!!!!!!!!!!!!!##############
warn: Sockets disabled, not accepting gdb connections
**** REAL SIMULATION ****
info: Entering event queue @ 0.  Starting simulation...
warn: x86 cpuid family 0x0000: unimplemented function 7
warn: readlink() called on '/proc/self/exe' may yield unexpected results in various settings.
      Returning '/home/cc/spec2006_1/benchspec/CPU2006/401.bzip2/exe/bzip2_base.amd64-m64-gcc43-nn'
info: Increasing stack size by one page.
warn: ignoring syscall access(...)
spec_init
Loading Input Data
Duplicating 289631 bytes
Duplicating 579262 bytes
warn: instruction 'prefetch_nta' unimplemented
warn: instruction 'prefetch_nta' unimplemented
Duplicating 1158524 bytes
Duplicating 2317048 bytes
Duplicating 4634096 bytes
Duplicating 9268192 bytes
Duplicating 12920896 bytes
Input data 31457280 bytes in length
Exiting @ tick 41742066500 because a thread reached the max instruction count
gem5 Simulator System.  http://gem5.org
gem5 is copyrighted software; use the --copyright option for details.

gem5 compiled Jun 23 2019 07:04:02
gem5 started Jun 23 2019 08:13:46
gem5 executing on gem5-new, pid 29774
command line: ./build/X86/gem5.opt configs/example/se_try.py -I 50000000 --caches --l1d_size=32kB --l1d_assoc=2 --l1i_size=32kB --l1i_assoc=2 --l2cache --l2_size=256kB --l2_assoc=8 --cacheline_size=64 --cpu-type=DerivO3CPU --mem-type=SimpleMemory --mem-size=8192MB -n 1 --maxinsts=10000000 --bench=bzip2 --prefetchers stride

info: Standard input is not a terminal, disabling listeners.
Selected SPEC_CPU2006 benchmark
--> bzip2
***USING Stride Prefetcher!***
Global frequency set at 1000000000000 ticks per second
using this cacche!!!!!!!!!!!!!##############
using this cacche!!!!!!!!!!!!!##############
using this cacche!!!!!!!!!!!!!##############
using this cacche!!!!!!!!!!!!!##############
using this cacche!!!!!!!!!!!!!##############
warn: Sockets disabled, not accepting gdb connections
**** REAL SIMULATION ****
info: Entering event queue @ 0.  Starting simulation...
warn: x86 cpuid family 0x0000: unimplemented function 7
warn: readlink() called on '/proc/self/exe' may yield unexpected results in various settings.
      Returning '/home/cc/spec2006_1/benchspec/CPU2006/401.bzip2/exe/bzip2_base.amd64-m64-gcc43-nn'
info: Increasing stack size by one page.
warn: ignoring syscall access(...)
spec_init
Loading Input Data
Duplicating 289631 bytes
Duplicating 579262 bytes
warn: instruction 'prefetch_nta' unimplemented
warn: instruction 'prefetch_nta' unimplemented
Duplicating 1158524 bytes
Duplicating 2317048 bytes
Duplicating 4634096 bytes
Duplicating 9268192 bytes
Duplicating 12920896 bytes
Input data 31457280 bytes in length
Exiting @ tick 16300061500 because a thread reached the max instruction count
gem5 Simulator System.  http://gem5.org
gem5 is copyrighted software; use the --copyright option for details.

gem5 compiled Jun 23 2019 07:04:02
gem5 started Jun 23 2019 08:15:10
gem5 executing on gem5-new, pid 29780
command line: ./build/X86/gem5.opt configs/example/se_try.py -I 50000000 --caches --l1d_size=32kB --l1d_assoc=2 --l1i_size=32kB --l1i_assoc=2 --l2cache --l2_size=256kB --l2_assoc=8 --cacheline_size=64 --cpu-type=DerivO3CPU --mem-type=SimpleMemory --mem-size=8192MB -n 1 --maxinsts=10000000 --bench=bzip2 --prefetchers tagged

info: Standard input is not a terminal, disabling listeners.
Selected SPEC_CPU2006 benchmark
--> bzip2
***USING Tagged Prefetcher!***
Global frequency set at 1000000000000 ticks per second
using this cacche!!!!!!!!!!!!!##############
using this cacche!!!!!!!!!!!!!##############
using this cacche!!!!!!!!!!!!!##############
using this cacche!!!!!!!!!!!!!##############
using this cacche!!!!!!!!!!!!!##############
warn: Sockets disabled, not accepting gdb connections
**** REAL SIMULATION ****
info: Entering event queue @ 0.  Starting simulation...
warn: x86 cpuid family 0x0000: unimplemented function 7
warn: readlink() called on '/proc/self/exe' may yield unexpected results in various settings.
      Returning '/home/cc/spec2006_1/benchspec/CPU2006/401.bzip2/exe/bzip2_base.amd64-m64-gcc43-nn'
info: Increasing stack size by one page.
warn: ignoring syscall access(...)
spec_init
Loading Input Data
Duplicating 289631 bytes
Duplicating 579262 bytes
warn: instruction 'prefetch_nta' unimplemented
warn: instruction 'prefetch_nta' unimplemented
Duplicating 1158524 bytes
Duplicating 2317048 bytes
Duplicating 4634096 bytes
Duplicating 9268192 bytes
Duplicating 12920896 bytes
Input data 31457280 bytes in length
Exiting @ tick 18765859500 because a thread reached the max instruction count
gem5 Simulator System.  http://gem5.org
gem5 is copyrighted software; use the --copyright option for details.

gem5 compiled Jun 23 2019 07:04:02
gem5 started Jun 23 2019 08:16:39
gem5 executing on gem5-new, pid 29786
command line: ./build/X86/gem5.opt configs/example/se_try.py -I 50000000 --caches --l1d_size=32kB --l1d_assoc=2 --l1i_size=32kB --l1i_assoc=2 --l2cache --l2_size=256kB --l2_assoc=8 --cacheline_size=64 --cpu-type=DerivO3CPU --mem-type=SimpleMemory --mem-size=8192MB -n 1 --maxinsts=10000000 --bench=gcc

info: Standard input is not a terminal, disabling listeners.
Selected SPEC_CPU2006 benchmark
--> gcc
Global frequency set at 1000000000000 ticks per second
using this cacche!!!!!!!!!!!!!##############
using this cacche!!!!!!!!!!!!!##############
using this cacche!!!!!!!!!!!!!##############
using this cacche!!!!!!!!!!!!!##############
using this cacche!!!!!!!!!!!!!##############
warn: Sockets disabled, not accepting gdb connections
**** REAL SIMULATION ****
info: Entering event queue @ 0.  Starting simulation...
warn: x86 cpuid family 0x0000: unimplemented function 7
warn: readlink() called on '/proc/self/exe' may yield unexpected results in various settings.
      Returning '/home/cc/spec2006_1/benchspec/CPU2006/403.gcc/exe/gcc_base.amd64-m64-gcc43-nn'
info: Increasing stack size by one page.
warn: ignoring syscall access(...)
warn: ignoring syscall rt_sigaction(...)
      (further warnings will be suppressed)
Exiting @ tick 6553274000 because a thread reached the max instruction count
gem5 Simulator System.  http://gem5.org
gem5 is copyrighted software; use the --copyright option for details.

gem5 compiled Jun 23 2019 07:04:02
gem5 started Jun 23 2019 08:18:15
gem5 executing on gem5-new, pid 29812
command line: ./build/X86/gem5.opt configs/example/se_try.py -I 50000000 --caches --l1d_size=32kB --l1d_assoc=2 --l1i_size=32kB --l1i_assoc=2 --l2cache --l2_size=256kB --l2_assoc=8 --cacheline_size=64 --cpu-type=DerivO3CPU --mem-type=SimpleMemory --mem-size=8192MB -n 1 --maxinsts=10000000 --bench=gcc --prefetchers stride

info: Standard input is not a terminal, disabling listeners.
Selected SPEC_CPU2006 benchmark
--> gcc
***USING Stride Prefetcher!***
Global frequency set at 1000000000000 ticks per second
using this cacche!!!!!!!!!!!!!##############
using this cacche!!!!!!!!!!!!!##############
using this cacche!!!!!!!!!!!!!##############
using this cacche!!!!!!!!!!!!!##############
using this cacche!!!!!!!!!!!!!##############
warn: Sockets disabled, not accepting gdb connections
**** REAL SIMULATION ****
info: Entering event queue @ 0.  Starting simulation...
warn: x86 cpuid family 0x0000: unimplemented function 7
warn: readlink() called on '/proc/self/exe' may yield unexpected results in various settings.
      Returning '/home/cc/spec2006_1/benchspec/CPU2006/403.gcc/exe/gcc_base.amd64-m64-gcc43-nn'
info: Increasing stack size by one page.
warn: ignoring syscall access(...)
warn: ignoring syscall rt_sigaction(...)
      (further warnings will be suppressed)
Exiting @ tick 6191727500 because a thread reached the max instruction count
gem5 Simulator System.  http://gem5.org
gem5 is copyrighted software; use the --copyright option for details.

gem5 compiled Jun 23 2019 07:04:02
gem5 started Jun 23 2019 08:19:49
gem5 executing on gem5-new, pid 29816
command line: ./build/X86/gem5.opt configs/example/se_try.py -I 50000000 --caches --l1d_size=32kB --l1d_assoc=2 --l1i_size=32kB --l1i_assoc=2 --l2cache --l2_size=256kB --l2_assoc=8 --cacheline_size=64 --cpu-type=DerivO3CPU --mem-type=SimpleMemory --mem-size=8192MB -n 1 --maxinsts=10000000 --bench=gcc --prefetchers tagged

info: Standard input is not a terminal, disabling listeners.
Selected SPEC_CPU2006 benchmark
--> gcc
***USING Tagged Prefetcher!***
Global frequency set at 1000000000000 ticks per second
using this cacche!!!!!!!!!!!!!##############
using this cacche!!!!!!!!!!!!!##############
using this cacche!!!!!!!!!!!!!##############
using this cacche!!!!!!!!!!!!!##############
using this cacche!!!!!!!!!!!!!##############
warn: Sockets disabled, not accepting gdb connections
**** REAL SIMULATION ****
info: Entering event queue @ 0.  Starting simulation...
warn: x86 cpuid family 0x0000: unimplemented function 7
warn: readlink() called on '/proc/self/exe' may yield unexpected results in various settings.
      Returning '/home/cc/spec2006_1/benchspec/CPU2006/403.gcc/exe/gcc_base.amd64-m64-gcc43-nn'
info: Increasing stack size by one page.
warn: ignoring syscall access(...)
warn: ignoring syscall rt_sigaction(...)
      (further warnings will be suppressed)
Exiting @ tick 5963669500 because a thread reached the max instruction count
gem5 Simulator System.  http://gem5.org
gem5 is copyrighted software; use the --copyright option for details.

gem5 compiled Jun 23 2019 07:04:02
gem5 started Jun 23 2019 08:21:24
gem5 executing on gem5-new, pid 29822
command line: ./build/X86/gem5.opt configs/example/se_try.py -I 50000000 --caches --l1d_size=32kB --l1d_assoc=2 --l1i_size=32kB --l1i_assoc=2 --l2cache --l2_size=256kB --l2_assoc=8 --cacheline_size=64 --cpu-type=DerivO3CPU --mem-type=SimpleMemory --mem-size=8192MB -n 1 --maxinsts=10000000 --bench=bwaves

info: Standard input is not a terminal, disabling listeners.
Selected SPEC_CPU2006 benchmark
--> bwaves
Global frequency set at 1000000000000 ticks per second
using this cacche!!!!!!!!!!!!!##############
using this cacche!!!!!!!!!!!!!##############
using this cacche!!!!!!!!!!!!!##############
using this cacche!!!!!!!!!!!!!##############
using this cacche!!!!!!!!!!!!!##############
warn: Sockets disabled, not accepting gdb connections
**** REAL SIMULATION ****
info: Entering event queue @ 0.  Starting simulation...
warn: x86 cpuid family 0x0000: unimplemented function 7
warn: readlink() called on '/proc/self/exe' may yield unexpected results in various settings.
      Returning '/home/cc/spec2006_1/benchspec/CPU2006/410.bwaves/exe/bwaves_base.amd64-m64-gcc43-nn'
info: Increasing stack size by one page.
warn: ignoring syscall access(...)
warn: instruction 'fwait' unimplemented
warn: instruction 'fnclex' unimplemented
warn: ignoring syscall rt_sigaction(...)
      (further warnings will be suppressed)
At line 21 of file flow_lam.f (unit = 50, file = 'bwaves.in')
Fortran runtime error: End of file
Exiting @ tick 59967500 because exiting with last active thread context
gem5 Simulator System.  http://gem5.org
gem5 is copyrighted software; use the --copyright option for details.

gem5 compiled Jun 23 2019 07:04:02
gem5 started Jun 23 2019 08:21:25
gem5 executing on gem5-new, pid 29824
command line: ./build/X86/gem5.opt configs/example/se_try.py -I 50000000 --caches --l1d_size=32kB --l1d_assoc=2 --l1i_size=32kB --l1i_assoc=2 --l2cache --l2_size=256kB --l2_assoc=8 --cacheline_size=64 --cpu-type=DerivO3CPU --mem-type=SimpleMemory --mem-size=8192MB -n 1 --maxinsts=10000000 --bench=bwaves --prefetchers stride

info: Standard input is not a terminal, disabling listeners.
Selected SPEC_CPU2006 benchmark
--> bwaves
***USING Stride Prefetcher!***
Global frequency set at 1000000000000 ticks per second
using this cacche!!!!!!!!!!!!!##############
using this cacche!!!!!!!!!!!!!##############
using this cacche!!!!!!!!!!!!!##############
using this cacche!!!!!!!!!!!!!##############
using this cacche!!!!!!!!!!!!!##############
warn: Sockets disabled, not accepting gdb connections
**** REAL SIMULATION ****
info: Entering event queue @ 0.  Starting simulation...
warn: x86 cpuid family 0x0000: unimplemented function 7
warn: readlink() called on '/proc/self/exe' may yield unexpected results in various settings.
      Returning '/home/cc/spec2006_1/benchspec/CPU2006/410.bwaves/exe/bwaves_base.amd64-m64-gcc43-nn'
info: Increasing stack size by one page.
warn: ignoring syscall access(...)
warn: instruction 'fwait' unimplemented
warn: instruction 'fnclex' unimplemented
warn: ignoring syscall rt_sigaction(...)
      (further warnings will be suppressed)
At line 21 of file flow_lam.f (unit = 50, file = 'bwaves.in')
Fortran runtime error: End of file
Exiting @ tick 57077500 because exiting with last active thread context
gem5 Simulator System.  http://gem5.org
gem5 is copyrighted software; use the --copyright option for details.

gem5 compiled Jun 23 2019 07:04:02
gem5 started Jun 23 2019 08:21:26
gem5 executing on gem5-new, pid 29826
command line: ./build/X86/gem5.opt configs/example/se_try.py -I 50000000 --caches --l1d_size=32kB --l1d_assoc=2 --l1i_size=32kB --l1i_assoc=2 --l2cache --l2_size=256kB --l2_assoc=8 --cacheline_size=64 --cpu-type=DerivO3CPU --mem-type=SimpleMemory --mem-size=8192MB -n 1 --maxinsts=10000000 --bench=bwaves --prefetchers tagged

info: Standard input is not a terminal, disabling listeners.
Selected SPEC_CPU2006 benchmark
--> bwaves
***USING Tagged Prefetcher!***
Global frequency set at 1000000000000 ticks per second
using this cacche!!!!!!!!!!!!!##############
using this cacche!!!!!!!!!!!!!##############
using this cacche!!!!!!!!!!!!!##############
using this cacche!!!!!!!!!!!!!##############
using this cacche!!!!!!!!!!!!!##############
warn: Sockets disabled, not accepting gdb connections
**** REAL SIMULATION ****
info: Entering event queue @ 0.  Starting simulation...
warn: x86 cpuid family 0x0000: unimplemented function 7
warn: readlink() called on '/proc/self/exe' may yield unexpected results in various settings.
      Returning '/home/cc/spec2006_1/benchspec/CPU2006/410.bwaves/exe/bwaves_base.amd64-m64-gcc43-nn'
info: Increasing stack size by one page.
warn: ignoring syscall access(...)
warn: instruction 'fwait' unimplemented
warn: instruction 'fnclex' unimplemented
warn: ignoring syscall rt_sigaction(...)
      (further warnings will be suppressed)
At line 21 of file flow_lam.f (unit = 50, file = 'bwaves.in')
Fortran runtime error: End of file
Exiting @ tick 41460000 because exiting with last active thread context
gem5 Simulator System.  http://gem5.org
gem5 is copyrighted software; use the --copyright option for details.

gem5 compiled Jun 23 2019 07:04:02
gem5 started Jun 23 2019 08:21:26
gem5 executing on gem5-new, pid 29828
command line: ./build/X86/gem5.opt configs/example/se_try.py -I 50000000 --caches --l1d_size=32kB --l1d_assoc=2 --l1i_size=32kB --l1i_assoc=2 --l2cache --l2_size=256kB --l2_assoc=8 --cacheline_size=64 --cpu-type=DerivO3CPU --mem-type=SimpleMemory --mem-size=8192MB -n 1 --maxinsts=10000000 --bench=mcf

info: Standard input is not a terminal, disabling listeners.
Selected SPEC_CPU2006 benchmark
--> mcf
Global frequency set at 1000000000000 ticks per second
using this cacche!!!!!!!!!!!!!##############
using this cacche!!!!!!!!!!!!!##############
using this cacche!!!!!!!!!!!!!##############
using this cacche!!!!!!!!!!!!!##############
using this cacche!!!!!!!!!!!!!##############
warn: Sockets disabled, not accepting gdb connections
**** REAL SIMULATION ****
info: Entering event queue @ 0.  Starting simulation...
warn: readlink() called on '/proc/self/exe' may yield unexpected results in various settings.
      Returning '/home/cc/spec2006_1/benchspec/CPU2006/429.mcf/exe/mcf_base.amd64-m64-gcc43-nn'
info: Increasing stack size by one page.
warn: ignoring syscall access(...)

MCF SPEC CPU2006 version 1.10
Copyright (c) 1998-2000 Zuse Institut Berlin (ZIB)
Copyright (c) 2000-2002 Andreas Loebel & ZIB
Copyright (c) 2003-2005 Andreas Loebel

Exiting @ tick 4270568000 because a thread reached the max instruction count
gem5 Simulator System.  http://gem5.org
gem5 is copyrighted software; use the --copyright option for details.

gem5 compiled Jun 23 2019 07:04:02
gem5 started Jun 23 2019 08:22:23
gem5 executing on gem5-new, pid 29831
command line: ./build/X86/gem5.opt configs/example/se_try.py -I 50000000 --caches --l1d_size=32kB --l1d_assoc=2 --l1i_size=32kB --l1i_assoc=2 --l2cache --l2_size=256kB --l2_assoc=8 --cacheline_size=64 --cpu-type=DerivO3CPU --mem-type=SimpleMemory --mem-size=8192MB -n 1 --maxinsts=10000000 --bench=mcf --prefetchers stride

info: Standard input is not a terminal, disabling listeners.
Selected SPEC_CPU2006 benchmark
--> mcf
***USING Stride Prefetcher!***
Global frequency set at 1000000000000 ticks per second
using this cacche!!!!!!!!!!!!!##############
using this cacche!!!!!!!!!!!!!##############
using this cacche!!!!!!!!!!!!!##############
using this cacche!!!!!!!!!!!!!##############
using this cacche!!!!!!!!!!!!!##############
warn: Sockets disabled, not accepting gdb connections
**** REAL SIMULATION ****
info: Entering event queue @ 0.  Starting simulation...
warn: readlink() called on '/proc/self/exe' may yield unexpected results in various settings.
      Returning '/home/cc/spec2006_1/benchspec/CPU2006/429.mcf/exe/mcf_base.amd64-m64-gcc43-nn'
info: Increasing stack size by one page.
warn: ignoring syscall access(...)

MCF SPEC CPU2006 version 1.10
Copyright (c) 1998-2000 Zuse Institut Berlin (ZIB)
Copyright (c) 2000-2002 Andreas Loebel & ZIB
Copyright (c) 2003-2005 Andreas Loebel

Exiting @ tick 3460741500 because a thread reached the max instruction count
gem5 Simulator System.  http://gem5.org
gem5 is copyrighted software; use the --copyright option for details.

gem5 compiled Jun 23 2019 07:04:02
gem5 started Jun 23 2019 08:23:20
gem5 executing on gem5-new, pid 29835
command line: ./build/X86/gem5.opt configs/example/se_try.py -I 50000000 --caches --l1d_size=32kB --l1d_assoc=2 --l1i_size=32kB --l1i_assoc=2 --l2cache --l2_size=256kB --l2_assoc=8 --cacheline_size=64 --cpu-type=DerivO3CPU --mem-type=SimpleMemory --mem-size=8192MB -n 1 --maxinsts=10000000 --bench=mcf --prefetchers tagged

info: Standard input is not a terminal, disabling listeners.
Selected SPEC_CPU2006 benchmark
--> mcf
***USING Tagged Prefetcher!***
Global frequency set at 1000000000000 ticks per second
using this cacche!!!!!!!!!!!!!##############
using this cacche!!!!!!!!!!!!!##############
using this cacche!!!!!!!!!!!!!##############
using this cacche!!!!!!!!!!!!!##############
using this cacche!!!!!!!!!!!!!##############
warn: Sockets disabled, not accepting gdb connections
**** REAL SIMULATION ****
info: Entering event queue @ 0.  Starting simulation...
warn: readlink() called on '/proc/self/exe' may yield unexpected results in various settings.
      Returning '/home/cc/spec2006_1/benchspec/CPU2006/429.mcf/exe/mcf_base.amd64-m64-gcc43-nn'
info: Increasing stack size by one page.
warn: ignoring syscall access(...)

MCF SPEC CPU2006 version 1.10
Copyright (c) 1998-2000 Zuse Institut Berlin (ZIB)
Copyright (c) 2000-2002 Andreas Loebel & ZIB
Copyright (c) 2003-2005 Andreas Loebel

Exiting @ tick 2830492000 because a thread reached the max instruction count
gem5 Simulator System.  http://gem5.org
gem5 is copyrighted software; use the --copyright option for details.

gem5 compiled Jun 23 2019 07:04:02
gem5 started Jun 23 2019 08:24:15
gem5 executing on gem5-new, pid 29838
command line: ./build/X86/gem5.opt configs/example/se_try.py -I 50000000 --caches --l1d_size=32kB --l1d_assoc=2 --l1i_size=32kB --l1i_assoc=2 --l2cache --l2_size=256kB --l2_assoc=8 --cacheline_size=64 --cpu-type=DerivO3CPU --mem-type=SimpleMemory --mem-size=8192MB -n 1 --maxinsts=10000000 --bench=milc

info: Standard input is not a terminal, disabling listeners.
Selected SPEC_CPU2006 benchmark
--> milc
Global frequency set at 1000000000000 ticks per second
using this cacche!!!!!!!!!!!!!##############
using this cacche!!!!!!!!!!!!!##############
using this cacche!!!!!!!!!!!!!##############
using this cacche!!!!!!!!!!!!!##############
using this cacche!!!!!!!!!!!!!##############
warn: Sockets disabled, not accepting gdb connections
**** REAL SIMULATION ****
info: Entering event queue @ 0.  Starting simulation...
warn: x86 cpuid family 0x0000: unimplemented function 7
warn: readlink() called on '/proc/self/exe' may yield unexpected results in various settings.
      Returning '/home/cc/spec2006_1/benchspec/CPU2006/433.milc/exe/milc_base.amd64-m64-gcc43-nn'
info: Increasing stack size by one page.
warn: ignoring syscall access(...)
SU3 with improved KS action
Microcanonical simulation with refreshing
MIMD version 6
Machine = Scalar processor, with 1 nodes
R algorithm
type 0 for no prompts  or 1 for prompts
nflavors 2
nx 20
ny 20
nz 20
nt 20
iseed 1234
LAYOUT = Hypercubes, options = EVENFIRST,
Exiting @ tick 9652286500 because a thread reached the max instruction count
gem5 Simulator System.  http://gem5.org
gem5 is copyrighted software; use the --copyright option for details.

gem5 compiled Jun 23 2019 07:04:02
gem5 started Jun 23 2019 08:25:56
gem5 executing on gem5-new, pid 29842
command line: ./build/X86/gem5.opt configs/example/se_try.py -I 50000000 --caches --l1d_size=32kB --l1d_assoc=2 --l1i_size=32kB --l1i_assoc=2 --l2cache --l2_size=256kB --l2_assoc=8 --cacheline_size=64 --cpu-type=DerivO3CPU --mem-type=SimpleMemory --mem-size=8192MB -n 1 --maxinsts=10000000 --bench=milc --prefetchers stride

info: Standard input is not a terminal, disabling listeners.
Selected SPEC_CPU2006 benchmark
--> milc
***USING Stride Prefetcher!***
Global frequency set at 1000000000000 ticks per second
using this cacche!!!!!!!!!!!!!##############
using this cacche!!!!!!!!!!!!!##############
using this cacche!!!!!!!!!!!!!##############
using this cacche!!!!!!!!!!!!!##############
using this cacche!!!!!!!!!!!!!##############
warn: Sockets disabled, not accepting gdb connections
**** REAL SIMULATION ****
info: Entering event queue @ 0.  Starting simulation...
warn: x86 cpuid family 0x0000: unimplemented function 7
warn: readlink() called on '/proc/self/exe' may yield unexpected results in various settings.
      Returning '/home/cc/spec2006_1/benchspec/CPU2006/433.milc/exe/milc_base.amd64-m64-gcc43-nn'
info: Increasing stack size by one page.
warn: ignoring syscall access(...)
SU3 with improved KS action
Microcanonical simulation with refreshing
MIMD version 6
Machine = Scalar processor, with 1 nodes
R algorithm
type 0 for no prompts  or 1 for prompts
nflavors 2
nx 20
ny 20
nz 20
nt 20
iseed 1234
LAYOUT = Hypercubes, options = EVENFIRST,
Exiting @ tick 9649948500 because a thread reached the max instruction count
gem5 Simulator System.  http://gem5.org
gem5 is copyrighted software; use the --copyright option for details.

gem5 compiled Jun 23 2019 07:04:02
gem5 started Jun 23 2019 08:27:39
gem5 executing on gem5-new, pid 29847
command line: ./build/X86/gem5.opt configs/example/se_try.py -I 50000000 --caches --l1d_size=32kB --l1d_assoc=2 --l1i_size=32kB --l1i_assoc=2 --l2cache --l2_size=256kB --l2_assoc=8 --cacheline_size=64 --cpu-type=DerivO3CPU --mem-type=SimpleMemory --mem-size=8192MB -n 1 --maxinsts=10000000 --bench=milc --prefetchers tagged

info: Standard input is not a terminal, disabling listeners.
Selected SPEC_CPU2006 benchmark
--> milc
***USING Tagged Prefetcher!***
Global frequency set at 1000000000000 ticks per second
using this cacche!!!!!!!!!!!!!##############
using this cacche!!!!!!!!!!!!!##############
using this cacche!!!!!!!!!!!!!##############
using this cacche!!!!!!!!!!!!!##############
using this cacche!!!!!!!!!!!!!##############
warn: Sockets disabled, not accepting gdb connections
**** REAL SIMULATION ****
info: Entering event queue @ 0.  Starting simulation...
warn: x86 cpuid family 0x0000: unimplemented function 7
warn: readlink() called on '/proc/self/exe' may yield unexpected results in various settings.
      Returning '/home/cc/spec2006_1/benchspec/CPU2006/433.milc/exe/milc_base.amd64-m64-gcc43-nn'
info: Increasing stack size by one page.
warn: ignoring syscall access(...)
SU3 with improved KS action
Microcanonical simulation with refreshing
MIMD version 6
Machine = Scalar processor, with 1 nodes
R algorithm
type 0 for no prompts  or 1 for prompts
nflavors 2
nx 20
ny 20
nz 20
nt 20
iseed 1234
LAYOUT = Hypercubes, options = EVENFIRST,
Exiting @ tick 6664897000 because a thread reached the max instruction count
gem5 Simulator System.  http://gem5.org
gem5 is copyrighted software; use the --copyright option for details.

gem5 compiled Jun 23 2019 07:04:02
gem5 started Jun 23 2019 08:29:17
gem5 executing on gem5-new, pid 29852
command line: ./build/X86/gem5.opt configs/example/se_try.py -I 50000000 --caches --l1d_size=32kB --l1d_assoc=2 --l1i_size=32kB --l1i_assoc=2 --l2cache --l2_size=256kB --l2_assoc=8 --cacheline_size=64 --cpu-type=DerivO3CPU --mem-type=SimpleMemory --mem-size=8192MB -n 1 --maxinsts=10000000 --bench=zeusmp

info: Standard input is not a terminal, disabling listeners.
Selected SPEC_CPU2006 benchmark
--> zeusmp
Global frequency set at 1000000000000 ticks per second
using this cacche!!!!!!!!!!!!!##############
using this cacche!!!!!!!!!!!!!##############
using this cacche!!!!!!!!!!!!!##############
using this cacche!!!!!!!!!!!!!##############
using this cacche!!!!!!!!!!!!!##############
warn: Sockets disabled, not accepting gdb connections
**** REAL SIMULATION ****
info: Entering event queue @ 0.  Starting simulation...
warn: x86 cpuid family 0x0000: unimplemented function 7
warn: readlink() called on '/proc/self/exe' may yield unexpected results in various settings.
      Returning '/home/cc/spec2006_1/benchspec/CPU2006/434.zeusmp/exe/zeusmp_base.amd64-m64-gcc43-nn'
info: Increasing stack size by one page.
warn: ignoring syscall access(...)
warn: instruction 'fwait' unimplemented
warn: instruction 'fnclex' unimplemented
warn: ignoring syscall rt_sigaction(...)
      (further warnings will be suppressed)
At line 256 of file mstart.f (unit = 1, file = '')
Fortran runtime error: File 'zmp_inp' does not exist
Exiting @ tick 49317500 because exiting with last active thread context
gem5 Simulator System.  http://gem5.org
gem5 is copyrighted software; use the --copyright option for details.

gem5 compiled Jun 23 2019 07:04:02
gem5 started Jun 23 2019 08:29:25
gem5 executing on gem5-new, pid 29854
command line: ./build/X86/gem5.opt configs/example/se_try.py -I 50000000 --caches --l1d_size=32kB --l1d_assoc=2 --l1i_size=32kB --l1i_assoc=2 --l2cache --l2_size=256kB --l2_assoc=8 --cacheline_size=64 --cpu-type=DerivO3CPU --mem-type=SimpleMemory --mem-size=8192MB -n 1 --maxinsts=10000000 --bench=zeusmp --prefetchers stride

info: Standard input is not a terminal, disabling listeners.
Selected SPEC_CPU2006 benchmark
--> zeusmp
***USING Stride Prefetcher!***
Global frequency set at 1000000000000 ticks per second
using this cacche!!!!!!!!!!!!!##############
using this cacche!!!!!!!!!!!!!##############
using this cacche!!!!!!!!!!!!!##############
using this cacche!!!!!!!!!!!!!##############
using this cacche!!!!!!!!!!!!!##############
warn: Sockets disabled, not accepting gdb connections
**** REAL SIMULATION ****
info: Entering event queue @ 0.  Starting simulation...
warn: x86 cpuid family 0x0000: unimplemented function 7
warn: readlink() called on '/proc/self/exe' may yield unexpected results in various settings.
      Returning '/home/cc/spec2006_1/benchspec/CPU2006/434.zeusmp/exe/zeusmp_base.amd64-m64-gcc43-nn'
info: Increasing stack size by one page.
warn: ignoring syscall access(...)
warn: instruction 'fwait' unimplemented
warn: instruction 'fnclex' unimplemented
warn: ignoring syscall rt_sigaction(...)
      (further warnings will be suppressed)
At line 256 of file mstart.f (unit = 1, file = '')
Fortran runtime error: File 'zmp_inp' does not exist
Exiting @ tick 46367500 because exiting with last active thread context
gem5 Simulator System.  http://gem5.org
gem5 is copyrighted software; use the --copyright option for details.

gem5 compiled Jun 23 2019 07:04:02
gem5 started Jun 23 2019 08:29:32
gem5 executing on gem5-new, pid 29856
command line: ./build/X86/gem5.opt configs/example/se_try.py -I 50000000 --caches --l1d_size=32kB --l1d_assoc=2 --l1i_size=32kB --l1i_assoc=2 --l2cache --l2_size=256kB --l2_assoc=8 --cacheline_size=64 --cpu-type=DerivO3CPU --mem-type=SimpleMemory --mem-size=8192MB -n 1 --maxinsts=10000000 --bench=zeusmp --prefetchers tagged

info: Standard input is not a terminal, disabling listeners.
Selected SPEC_CPU2006 benchmark
--> zeusmp
***USING Tagged Prefetcher!***
Global frequency set at 1000000000000 ticks per second
using this cacche!!!!!!!!!!!!!##############
using this cacche!!!!!!!!!!!!!##############
using this cacche!!!!!!!!!!!!!##############
using this cacche!!!!!!!!!!!!!##############
using this cacche!!!!!!!!!!!!!##############
warn: Sockets disabled, not accepting gdb connections
**** REAL SIMULATION ****
info: Entering event queue @ 0.  Starting simulation...
warn: x86 cpuid family 0x0000: unimplemented function 7
warn: readlink() called on '/proc/self/exe' may yield unexpected results in various settings.
      Returning '/home/cc/spec2006_1/benchspec/CPU2006/434.zeusmp/exe/zeusmp_base.amd64-m64-gcc43-nn'
info: Increasing stack size by one page.
warn: ignoring syscall access(...)
warn: instruction 'fwait' unimplemented
warn: instruction 'fnclex' unimplemented
warn: ignoring syscall rt_sigaction(...)
      (further warnings will be suppressed)
At line 256 of file mstart.f (unit = 1, file = '')
Fortran runtime error: File 'zmp_inp' does not exist
Exiting @ tick 31628000 because exiting with last active thread context
gem5 Simulator System.  http://gem5.org
gem5 is copyrighted software; use the --copyright option for details.

gem5 compiled Jun 23 2019 07:04:02
gem5 started Jun 23 2019 08:29:40
gem5 executing on gem5-new, pid 29858
command line: ./build/X86/gem5.opt configs/example/se_try.py -I 50000000 --caches --l1d_size=32kB --l1d_assoc=2 --l1i_size=32kB --l1i_assoc=2 --l2cache --l2_size=256kB --l2_assoc=8 --cacheline_size=64 --cpu-type=DerivO3CPU --mem-type=SimpleMemory --mem-size=8192MB -n 1 --maxinsts=10000000 --bench=gromacs

info: Standard input is not a terminal, disabling listeners.
Selected SPEC_CPU2006 benchmark
--> gromacs
Global frequency set at 1000000000000 ticks per second
using this cacche!!!!!!!!!!!!!##############
using this cacche!!!!!!!!!!!!!##############
using this cacche!!!!!!!!!!!!!##############
using this cacche!!!!!!!!!!!!!##############
using this cacche!!!!!!!!!!!!!##############
warn: Sockets disabled, not accepting gdb connections
**** REAL SIMULATION ****
info: Entering event queue @ 0.  Starting simulation...
warn: x86 cpuid family 0x0000: unimplemented function 7
warn: readlink() called on '/proc/self/exe' may yield unexpected results in various settings.
      Returning '/home/cc/spec2006_1/benchspec/CPU2006/435.gromacs/exe/gromacs_base.amd64-m64-gcc43-nn'
info: Increasing stack size by one page.
warn: ignoring syscall access(...)
info: Increasing stack size by one page.
info: Increasing stack size by one page.
info: Increasing stack size by one page.
info: Increasing stack size by one page.
info: Increasing stack size by one page.
info: Increasing stack size by one page.
info: Increasing stack size by one page.
info: Increasing stack size by one page.
info: Increasing stack size by one page.
info: Increasing stack size by one page.
info: Increasing stack size by one page.
info: Increasing stack size by one page.
info: Increasing stack size by one page.
Exiting @ tick 2895123000 because a thread reached the max instruction count
gem5 Simulator System.  http://gem5.org
gem5 is copyrighted software; use the --copyright option for details.

gem5 compiled Jun 23 2019 07:04:02
gem5 started Jun 23 2019 08:30:39
gem5 executing on gem5-new, pid 29861
command line: ./build/X86/gem5.opt configs/example/se_try.py -I 50000000 --caches --l1d_size=32kB --l1d_assoc=2 --l1i_size=32kB --l1i_assoc=2 --l2cache --l2_size=256kB --l2_assoc=8 --cacheline_size=64 --cpu-type=DerivO3CPU --mem-type=SimpleMemory --mem-size=8192MB -n 1 --maxinsts=10000000 --bench=gromacs --prefetchers stride

info: Standard input is not a terminal, disabling listeners.
Selected SPEC_CPU2006 benchmark
--> gromacs
***USING Stride Prefetcher!***
Global frequency set at 1000000000000 ticks per second
using this cacche!!!!!!!!!!!!!##############
using this cacche!!!!!!!!!!!!!##############
using this cacche!!!!!!!!!!!!!##############
using this cacche!!!!!!!!!!!!!##############
using this cacche!!!!!!!!!!!!!##############
warn: Sockets disabled, not accepting gdb connections
**** REAL SIMULATION ****
info: Entering event queue @ 0.  Starting simulation...
warn: x86 cpuid family 0x0000: unimplemented function 7
warn: readlink() called on '/proc/self/exe' may yield unexpected results in various settings.
      Returning '/home/cc/spec2006_1/benchspec/CPU2006/435.gromacs/exe/gromacs_base.amd64-m64-gcc43-nn'
info: Increasing stack size by one page.
warn: ignoring syscall access(...)
info: Increasing stack size by one page.
info: Increasing stack size by one page.
info: Increasing stack size by one page.
info: Increasing stack size by one page.
info: Increasing stack size by one page.
info: Increasing stack size by one page.
info: Increasing stack size by one page.
info: Increasing stack size by one page.
info: Increasing stack size by one page.
info: Increasing stack size by one page.
info: Increasing stack size by one page.
info: Increasing stack size by one page.
info: Increasing stack size by one page.
Exiting @ tick 2826266000 because a thread reached the max instruction count
gem5 Simulator System.  http://gem5.org
gem5 is copyrighted software; use the --copyright option for details.

gem5 compiled Jun 23 2019 07:04:02
gem5 started Jun 23 2019 08:31:37
gem5 executing on gem5-new, pid 29866
command line: ./build/X86/gem5.opt configs/example/se_try.py -I 50000000 --caches --l1d_size=32kB --l1d_assoc=2 --l1i_size=32kB --l1i_assoc=2 --l2cache --l2_size=256kB --l2_assoc=8 --cacheline_size=64 --cpu-type=DerivO3CPU --mem-type=SimpleMemory --mem-size=8192MB -n 1 --maxinsts=10000000 --bench=gromacs --prefetchers tagged

info: Standard input is not a terminal, disabling listeners.
Selected SPEC_CPU2006 benchmark
--> gromacs
***USING Tagged Prefetcher!***
Global frequency set at 1000000000000 ticks per second
using this cacche!!!!!!!!!!!!!##############
using this cacche!!!!!!!!!!!!!##############
using this cacche!!!!!!!!!!!!!##############
using this cacche!!!!!!!!!!!!!##############
using this cacche!!!!!!!!!!!!!##############
warn: Sockets disabled, not accepting gdb connections
**** REAL SIMULATION ****
info: Entering event queue @ 0.  Starting simulation...
warn: x86 cpuid family 0x0000: unimplemented function 7
warn: readlink() called on '/proc/self/exe' may yield unexpected results in various settings.
      Returning '/home/cc/spec2006_1/benchspec/CPU2006/435.gromacs/exe/gromacs_base.amd64-m64-gcc43-nn'
info: Increasing stack size by one page.
warn: ignoring syscall access(...)
info: Increasing stack size by one page.
info: Increasing stack size by one page.
info: Increasing stack size by one page.
info: Increasing stack size by one page.
info: Increasing stack size by one page.
info: Increasing stack size by one page.
info: Increasing stack size by one page.
info: Increasing stack size by one page.
info: Increasing stack size by one page.
info: Increasing stack size by one page.
info: Increasing stack size by one page.
info: Increasing stack size by one page.
info: Increasing stack size by one page.
Exiting @ tick 2760820000 because a thread reached the max instruction count
gem5 Simulator System.  http://gem5.org
gem5 is copyrighted software; use the --copyright option for details.

gem5 compiled Jun 23 2019 07:04:02
gem5 started Jun 23 2019 08:32:35
gem5 executing on gem5-new, pid 29869
command line: ./build/X86/gem5.opt configs/example/se_try.py -I 50000000 --caches --l1d_size=32kB --l1d_assoc=2 --l1i_size=32kB --l1i_assoc=2 --l2cache --l2_size=256kB --l2_assoc=8 --cacheline_size=64 --cpu-type=DerivO3CPU --mem-type=SimpleMemory --mem-size=8192MB -n 1 --maxinsts=10000000 --bench=cactusADM

info: Standard input is not a terminal, disabling listeners.
Selected SPEC_CPU2006 benchmark
--> cactusADM
Global frequency set at 1000000000000 ticks per second
using this cacche!!!!!!!!!!!!!##############
using this cacche!!!!!!!!!!!!!##############
using this cacche!!!!!!!!!!!!!##############
using this cacche!!!!!!!!!!!!!##############
using this cacche!!!!!!!!!!!!!##############
warn: Sockets disabled, not accepting gdb connections
**** REAL SIMULATION ****
info: Entering event queue @ 0.  Starting simulation...
warn: readlink() called on '/proc/self/exe' may yield unexpected results in various settings.
      Returning '/home/cc/spec2006_1/benchspec/CPU2006/436.cactusADM/exe/cactusADM_base.amd64-m64-gcc43-nn'
info: Increasing stack size by one page.
warn: ignoring syscall access(...)
warn: instruction 'fwait' unimplemented
warn: instruction 'fnclex' unimplemented
--------------------------------------------------------------------------------

       10                                  
  1   0101       ************************  
  01  1010 10      The Cactus Code V4.0    
 1010 1101 011      www.cactuscode.org     
  1001 100101    ************************  
    00010101                               
     100011     (c) Copyright The Authors  
      0100      GNU Licensed. No Warranty  
      0101                                 

--------------------------------------------------------------------------------

Cactus version: 4.0.b11
Parameter file: /home/cc/spec2006_1/benchspec/CPU2006/436.cactusADM/data/ref/input/benchADM.par
--------------------------------------------------------------------------------

Activating thorn Cactus...Success -> active implementation Cactus
Activation requested for 
--->einstein time benchadm pugh pughreduce cartgrid3d ioutil iobasic <---
Activating thorn benchadm...Success -> active implementation benchadm
Activating thorn cartgrid3d...Success -> active implementation grid
Activating thorn einstein...Success -> active implementation einstein
Activating thorn iobasic...Success -> active implementation IOBasic
Activating thorn ioutil...Success -> active implementation IO
Activating thorn pugh...Success -> active implementation driver
Activating thorn pughreduce...Success -> active implementation reduce
Activating thorn time...Success -> active implementation time
--------------------------------------------------------------------------------
  if (recover)
    Recover parameters
  endif

  Startup routines
    BenchADM: Register slicings
    CartGrid3D: Register GH Extension for GridSymmetry
    CartGrid3D: Register coordinates for the Cartesian grid
    PUGH: Startup routine
    IOUtil: Startup routine
    IOBasic: Startup routine
    PUGHReduce: Startup routine.

  Parameter checking routines
    BenchADM: Check parameters
    CartGrid3D: Check coordinates for CartGrid3D

  Initialisation
    CartGrid3D: Set up spatial 3D Cartesian coordinates on the GH
    Einstein: Set up GF symmetries
    Einstein: Initialize slicing, setup priorities for mixed slicings
    PUGH: Report on PUGH set up
    Time: Initialise Time variables
    Time: Set timestep based on Courant condition
    Einstein: Initialisation for Einstein methods
    Einstein: Flat initial data
    BenchADM: Setup for ADM
    Einstein: Set initial lapse to a gaussian
    BenchADM: Time symmetric initial data for staggered leapfrog
    if (recover)
    endif
    if (checkpoint initial data)
    endif
    if (analysis)
      Einstein: Compute the trace of the extrinsic curvature
      Einstein: Calculate the spherical metric in r,theta(q), phi(p)
      Einstein: Calculate the spherical ex. curvature in r, theta(q), phi(p)
    endif

  do loop over timesteps
    Rotate timelevels
    iteration = iteration + 1
    t = t+dt
    Einstein: Identify the slicing for the next iteration
    BenchADM: Evolve using Staggered Leapfrog
    if (checkpoint)
    endif
    if (analysis)
      Einstein: Compute the trace of the extrinsic curvature
      Einstein: Calculate the spherical metric in r,theta(q), phi(p)
      Einstein: Calculate the spherical ex. curvature in r, theta(q), phi(p)
    endif
  enddo
  Termination routines
    PUGH: Termination routine
  Shutdown routines
--------------------------------------------------------------------------------
--------------------------------------------------------------------------------
Driver provided by PUGH
--------------------------------------------------------------------------------

INFO (IOBasic): I/O Method 'Scalar' registered
INFO (IOBasic): Scalar: Output of scalar quantities (grid scalars, reductions) to ASCII files
INFO (IOBasic): I/O Method 'Info' registered
INFO (IOBasic): Info: Output of scalar quantities (grid scalars, reductions) to screen
INFO (BenchADM): Evolve using the ADM system
INFO (BenchADM):   with staggered leapfrog
Exiting @ tick 16387100500 because a thread reached the max instruction count
gem5 Simulator System.  http://gem5.org
gem5 is copyrighted software; use the --copyright option for details.

gem5 compiled Jun 23 2019 07:04:02
gem5 started Jun 23 2019 08:34:21
gem5 executing on gem5-new, pid 29874
command line: ./build/X86/gem5.opt configs/example/se_try.py -I 50000000 --caches --l1d_size=32kB --l1d_assoc=2 --l1i_size=32kB --l1i_assoc=2 --l2cache --l2_size=256kB --l2_assoc=8 --cacheline_size=64 --cpu-type=DerivO3CPU --mem-type=SimpleMemory --mem-size=8192MB -n 1 --maxinsts=10000000 --bench=cactusADM --prefetchers stride

info: Standard input is not a terminal, disabling listeners.
Selected SPEC_CPU2006 benchmark
--> cactusADM
***USING Stride Prefetcher!***
Global frequency set at 1000000000000 ticks per second
using this cacche!!!!!!!!!!!!!##############
using this cacche!!!!!!!!!!!!!##############
using this cacche!!!!!!!!!!!!!##############
using this cacche!!!!!!!!!!!!!##############
using this cacche!!!!!!!!!!!!!##############
warn: Sockets disabled, not accepting gdb connections
**** REAL SIMULATION ****
info: Entering event queue @ 0.  Starting simulation...
warn: readlink() called on '/proc/self/exe' may yield unexpected results in various settings.
      Returning '/home/cc/spec2006_1/benchspec/CPU2006/436.cactusADM/exe/cactusADM_base.amd64-m64-gcc43-nn'
info: Increasing stack size by one page.
warn: ignoring syscall access(...)
warn: instruction 'fwait' unimplemented
warn: instruction 'fnclex' unimplemented
--------------------------------------------------------------------------------

       10                                  
  1   0101       ************************  
  01  1010 10      The Cactus Code V4.0    
 1010 1101 011      www.cactuscode.org     
  1001 100101    ************************  
    00010101                               
     100011     (c) Copyright The Authors  
      0100      GNU Licensed. No Warranty  
      0101                                 

--------------------------------------------------------------------------------

Cactus version: 4.0.b11
Parameter file: /home/cc/spec2006_1/benchspec/CPU2006/436.cactusADM/data/ref/input/benchADM.par
--------------------------------------------------------------------------------

Activating thorn Cactus...Success -> active implementation Cactus
Activation requested for 
--->einstein time benchadm pugh pughreduce cartgrid3d ioutil iobasic <---
Activating thorn benchadm...Success -> active implementation benchadm
Activating thorn cartgrid3d...Success -> active implementation grid
Activating thorn einstein...Success -> active implementation einstein
Activating thorn iobasic...Success -> active implementation IOBasic
Activating thorn ioutil...Success -> active implementation IO
Activating thorn pugh...Success -> active implementation driver
Activating thorn pughreduce...Success -> active implementation reduce
Activating thorn time...Success -> active implementation time
--------------------------------------------------------------------------------
  if (recover)
    Recover parameters
  endif

  Startup routines
    BenchADM: Register slicings
    CartGrid3D: Register GH Extension for GridSymmetry
    CartGrid3D: Register coordinates for the Cartesian grid
    PUGH: Startup routine
    IOUtil: Startup routine
    IOBasic: Startup routine
    PUGHReduce: Startup routine.

  Parameter checking routines
    BenchADM: Check parameters
    CartGrid3D: Check coordinates for CartGrid3D

  Initialisation
    CartGrid3D: Set up spatial 3D Cartesian coordinates on the GH
    Einstein: Set up GF symmetries
    Einstein: Initialize slicing, setup priorities for mixed slicings
    PUGH: Report on PUGH set up
    Time: Initialise Time variables
    Time: Set timestep based on Courant condition
    Einstein: Initialisation for Einstein methods
    Einstein: Flat initial data
    BenchADM: Setup for ADM
    Einstein: Set initial lapse to a gaussian
    BenchADM: Time symmetric initial data for staggered leapfrog
    if (recover)
    endif
    if (checkpoint initial data)
    endif
    if (analysis)
      Einstein: Compute the trace of the extrinsic curvature
      Einstein: Calculate the spherical metric in r,theta(q), phi(p)
      Einstein: Calculate the spherical ex. curvature in r, theta(q), phi(p)
    endif

  do loop over timesteps
    Rotate timelevels
    iteration = iteration + 1
    t = t+dt
    Einstein: Identify the slicing for the next iteration
    BenchADM: Evolve using Staggered Leapfrog
    if (checkpoint)
    endif
    if (analysis)
      Einstein: Compute the trace of the extrinsic curvature
      Einstein: Calculate the spherical metric in r,theta(q), phi(p)
      Einstein: Calculate the spherical ex. curvature in r, theta(q), phi(p)
    endif
  enddo
  Termination routines
    PUGH: Termination routine
  Shutdown routines
--------------------------------------------------------------------------------
--------------------------------------------------------------------------------
Driver provided by PUGH
--------------------------------------------------------------------------------

INFO (IOBasic): I/O Method 'Scalar' registered
INFO (IOBasic): Scalar: Output of scalar quantities (grid scalars, reductions) to ASCII files
INFO (IOBasic): I/O Method 'Info' registered
INFO (IOBasic): Info: Output of scalar quantities (grid scalars, reductions) to screen
INFO (BenchADM): Evolve using the ADM system
INFO (BenchADM):   with staggered leapfrog
Exiting @ tick 16356673500 because a thread reached the max instruction count
gem5 Simulator System.  http://gem5.org
gem5 is copyrighted software; use the --copyright option for details.

gem5 compiled Jun 23 2019 07:04:02
gem5 started Jun 23 2019 08:36:07
gem5 executing on gem5-new, pid 29879
command line: ./build/X86/gem5.opt configs/example/se_try.py -I 50000000 --caches --l1d_size=32kB --l1d_assoc=2 --l1i_size=32kB --l1i_assoc=2 --l2cache --l2_size=256kB --l2_assoc=8 --cacheline_size=64 --cpu-type=DerivO3CPU --mem-type=SimpleMemory --mem-size=8192MB -n 1 --maxinsts=10000000 --bench=cactusADM --prefetchers tagged

info: Standard input is not a terminal, disabling listeners.
Selected SPEC_CPU2006 benchmark
--> cactusADM
***USING Tagged Prefetcher!***
Global frequency set at 1000000000000 ticks per second
using this cacche!!!!!!!!!!!!!##############
using this cacche!!!!!!!!!!!!!##############
using this cacche!!!!!!!!!!!!!##############
using this cacche!!!!!!!!!!!!!##############
using this cacche!!!!!!!!!!!!!##############
warn: Sockets disabled, not accepting gdb connections
**** REAL SIMULATION ****
info: Entering event queue @ 0.  Starting simulation...
warn: readlink() called on '/proc/self/exe' may yield unexpected results in various settings.
      Returning '/home/cc/spec2006_1/benchspec/CPU2006/436.cactusADM/exe/cactusADM_base.amd64-m64-gcc43-nn'
info: Increasing stack size by one page.
warn: ignoring syscall access(...)
warn: instruction 'fwait' unimplemented
warn: instruction 'fnclex' unimplemented
info: Increasing stack size by one page.
info: Increasing stack size by one page.
info: Increasing stack size by one page.
info: Increasing stack size by one page.
info: Increasing stack size by one page.
info: Increasing stack size by one page.
info: Increasing stack size by one page.
info: Increasing stack size by one page.
info: Increasing stack size by one page.
info: Increasing stack size by one page.
info: Increasing stack size by one page.
info: Increasing stack size by one page.
info: Increasing stack size by one page.
info: Increasing stack size by one page.
info: Increasing stack size by one page.
info: Increasing stack size by one page.
info: Increasing stack size by one page.
info: Increasing stack size by one page.
info: Increasing stack size by one page.
info: Increasing stack size by one page.
info: Increasing stack size by one page.
info: Increasing stack size by one page.
info: Increasing stack size by one page.
info: Increasing stack size by one page.
info: Increasing stack size by one page.
info: Increasing stack size by one page.
info: Increasing stack size by one page.
info: Increasing stack size by one page.
info: Increasing stack size by one page.
info: Increasing stack size by one page.
info: Increasing stack size by one page.
info: Increasing stack size by one page.
info: Increasing stack size by one page.
info: Increasing stack size by one page.
info: Increasing stack size by one page.
info: Increasing stack size by one page.
info: Increasing stack size by one page.
info: Increasing stack size by one page.
info: Increasing stack size by one page.
info: Increasing stack size by one page.
info: Increasing stack size by one page.
info: Increasing stack size by one page.
info: Increasing stack size by one page.
info: Increasing stack size by one page.
info: Increasing stack size by one page.
info: Increasing stack size by one page.
info: Increasing stack size by one page.
info: Increasing stack size by one page.
info: Increasing stack size by one page.
info: Increasing stack size by one page.
info: Increasing stack size by one page.
info: Increasing stack size by one page.
info: Increasing stack size by one page.
info: Increasing stack size by one page.
info: Increasing stack size by one page.
info: Increasing stack size by one page.
info: Increasing stack size by one page.
info: Increasing stack size by one page.
info: Increasing stack size by one page.
info: Increasing stack size by one page.
info: Increasing stack size by one page.
info: Increasing stack size by one page.
info: Increasing stack size by one page.
info: Increasing stack size by one page.
info: Increasing stack size by one page.
info: Increasing stack size by one page.
info: Increasing stack size by one page.
info: Increasing stack size by one page.
info: Increasing stack size by one page.
info: Increasing stack size by one page.
info: Increasing stack size by one page.
info: Increasing stack size by one page.
info: Increasing stack size by one page.
info: Increasing stack size by one page.
info: Increasing stack size by one page.
info: Increasing stack size by one page.
info: Increasing stack size by one page.
info: Increasing stack size by one page.
info: Increasing stack size by one page.
info: Increasing stack size by one page.
info: Increasing stack size by one page.
info: Increasing stack size by one page.
info: Increasing stack size by one page.
info: Increasing stack size by one page.
info: Increasing stack size by one page.
info: Increasing stack size by one page.
info: Increasing stack size by one page.
info: Increasing stack size by one page.
info: Increasing stack size by one page.
info: Increasing stack size by one page.
info: Increasing stack size by one page.
info: Increasing stack size by one page.
info: Increasing stack size by one page.
info: Increasing stack size by one page.
info: Increasing stack size by one page.
info: Increasing stack size by one page.
info: Increasing stack size by one page.
info: Increasing stack size by one page.
info: Increasing stack size by one page.
info: Increasing stack size by one page.
info: Increasing stack size by one page.
info: Increasing stack size by one page.
info: Increasing stack size by one page.
info: Increasing stack size by one page.
info: Increasing stack size by one page.
info: Increasing stack size by one page.
info: Increasing stack size by one page.
info: Increasing stack size by one page.
info: Increasing stack size by one page.
info: Increasing stack size by one page.
info: Increasing stack size by one page.
info: Increasing stack size by one page.
info: Increasing stack size by one page.
info: Increasing stack size by one page.
info: Increasing stack size by one page.
info: Increasing stack size by one page.
info: Increasing stack size by one page.
info: Increasing stack size by one page.
info: Increasing stack size by one page.
info: Increasing stack size by one page.
info: Increasing stack size by one page.
info: Increasing stack size by one page.
info: Increasing stack size by one page.
info: Increasing stack size by one page.
info: Increasing stack size by one page.
info: Increasing stack size by one page.
info: Increasing stack size by one page.
info: Increasing stack size by one page.
info: Increasing stack size by one page.
info: Increasing stack size by one page.
info: Increasing stack size by one page.
info: Increasing stack size by one page.
info: Increasing stack size by one page.
info: Increasing stack size by one page.
info: Increasing stack size by one page.
info: Increasing stack size by one page.
info: Increasing stack size by one page.
info: Increasing stack size by one page.
info: Increasing stack size by one page.
info: Increasing stack size by one page.
info: Increasing stack size by one page.
info: Increasing stack size by one page.
info: Increasing stack size by one page.
info: Increasing stack size by one page.
info: Increasing stack size by one page.
info: Increasing stack size by one page.
info: Increasing stack size by one page.
info: Increasing stack size by one page.
info: Increasing stack size by one page.
info: Increasing stack size by one page.
info: Increasing stack size by one page.
info: Increasing stack size by one page.
info: Increasing stack size by one page.
info: Increasing stack size by one page.
info: Increasing stack size by one page.
info: Increasing stack size by one page.
info: Increasing stack size by one page.
info: Increasing stack size by one page.
info: Increasing stack size by one page.
info: Increasing stack size by one page.
info: Increasing stack size by one page.
info: Increasing stack size by one page.
info: Increasing stack size by one page.
info: Increasing stack size by one page.
info: Increasing stack size by one page.
info: Increasing stack size by one page.
info: Increasing stack size by one page.
info: Increasing stack size by one page.
info: Increasing stack size by one page.
info: Increasing stack size by one page.
info: Increasing stack size by one page.
info: Increasing stack size by one page.
info: Increasing stack size by one page.
info: Increasing stack size by one page.
info: Increasing stack size by one page.
info: Increasing stack size by one page.
info: Increasing stack size by one page.
info: Increasing stack size by one page.
info: Increasing stack size by one page.
info: Increasing stack size by one page.
info: Increasing stack size by one page.
info: Increasing stack size by one page.
info: Increasing stack size by one page.
info: Increasing stack size by one page.
info: Increasing stack size by one page.
info: Increasing stack size by one page.
info: Increasing stack size by one page.
info: Increasing stack size by one page.
info: Increasing stack size by one page.
info: Increasing stack size by one page.
info: Increasing stack size by one page.
info: Increasing stack size by one page.
info: Increasing stack size by one page.
info: Increasing stack size by one page.
info: Increasing stack size by one page.
info: Increasing stack size by one page.
info: Increasing stack size by one page.
info: Increasing stack size by one page.
info: Increasing stack size by one page.
info: Increasing stack size by one page.
info: Increasing stack size by one page.
info: Increasing stack size by one page.
info: Increasing stack size by one page.
info: Increasing stack size by one page.
info: Increasing stack size by one page.
info: Increasing stack size by one page.
info: Increasing stack size by one page.
info: Increasing stack size by one page.
info: Increasing stack size by one page.
info: Increasing stack size by one page.
info: Increasing stack size by one page.
info: Increasing stack size by one page.
info: Increasing stack size by one page.
info: Increasing stack size by one page.
info: Increasing stack size by one page.
info: Increasing stack size by one page.
info: Increasing stack size by one page.
info: Increasing stack size by one page.
info: Increasing stack size by one page.
info: Increasing stack size by one page.
info: Increasing stack size by one page.
info: Increasing stack size by one page.
info: Increasing stack size by one page.
info: Increasing stack size by one page.
info: Increasing stack size by one page.
info: Increasing stack size by one page.
info: Increasing stack size by one page.
info: Increasing stack size by one page.
info: Increasing stack size by one page.
info: Increasing stack size by one page.
info: Increasing stack size by one page.
info: Increasing stack size by one page.
info: Increasing stack size by one page.
info: Increasing stack size by one page.
info: Increasing stack size by one page.
info: Increasing stack size by one page.
info: Increasing stack size by one page.
info: Increasing stack size by one page.
info: Increasing stack size by one page.
info: Increasing stack size by one page.
info: Increasing stack size by one page.
info: Increasing stack size by one page.
info: Increasing stack size by one page.
info: Increasing stack size by one page.
info: Increasing stack size by one page.
info: Increasing stack size by one page.
info: Increasing stack size by one page.
info: Increasing stack size by one page.
info: Increasing stack size by one page.
info: Increasing stack size by one page.
info: Increasing stack size by one page.
info: Increasing stack size by one page.
info: Increasing stack size by one page.
info: Increasing stack size by one page.
info: Increasing stack size by one page.
info: Increasing stack size by one page.
info: Increasing stack size by one page.
info: Increasing stack size by one page.
info: Increasing stack size by one page.
info: Increasing stack size by one page.
info: Increasing stack size by one page.
info: Increasing stack size by one page.
info: Increasing stack size by one page.
info: Increasing stack size by one page.
info: Increasing stack size by one page.
info: Increasing stack size by one page.
info: Increasing stack size by one page.
info: Increasing stack size by one page.
info: Increasing stack size by one page.
info: Increasing stack size by one page.
info: Increasing stack size by one page.
info: Increasing stack size by one page.
info: Increasing stack size by one page.
info: Increasing stack size by one page.
info: Increasing stack size by one page.
info: Increasing stack size by one page.
info: Increasing stack size by one page.
info: Increasing stack size by one page.
info: Increasing stack size by one page.
info: Increasing stack size by one page.
info: Increasing stack size by one page.
info: Increasing stack size by one page.
info: Increasing stack size by one page.
info: Increasing stack size by one page.
info: Increasing stack size by one page.
info: Increasing stack size by one page.
info: Increasing stack size by one page.
info: Increasing stack size by one page.
info: Increasing stack size by one page.
info: Increasing stack size by one page.
info: Increasing stack size by one page.
info: Increasing stack size by one page.
info: Increasing stack size by one page.
info: Increasing stack size by one page.
info: Increasing stack size by one page.
info: Increasing stack size by one page.
info: Increasing stack size by one page.
info: Increasing stack size by one page.
info: Increasing stack size by one page.
info: Increasing stack size by one page.
info: Increasing stack size by one page.
info: Increasing stack size by one page.
info: Increasing stack size by one page.
info: Increasing stack size by one page.
info: Increasing stack size by one page.
info: Increasing stack size by one page.
info: Increasing stack size by one page.
info: Increasing stack size by one page.
info: Increasing stack size by one page.
info: Increasing stack size by one page.
info: Increasing stack size by one page.
info: Increasing stack size by one page.
info: Increasing stack size by one page.
info: Increasing stack size by one page.
info: Increasing stack size by one page.
info: Increasing stack size by one page.
info: Increasing stack size by one page.
info: Increasing stack size by one page.
info: Increasing stack size by one page.
info: Increasing stack size by one page.
info: Increasing stack size by one page.
info: Increasing stack size by one page.
info: Increasing stack size by one page.
info: Increasing stack size by one page.
info: Increasing stack size by one page.
info: Increasing stack size by one page.
info: Increasing stack size by one page.
info: Increasing stack size by one page.
info: Increasing stack size by one page.
info: Increasing stack size by one page.
info: Increasing stack size by one page.
info: Increasing stack size by one page.
info: Increasing stack size by one page.
info: Increasing stack size by one page.
info: Increasing stack size by one page.
info: Increasing stack size by one page.
info: Increasing stack size by one page.
info: Increasing stack size by one page.
info: Increasing stack size by one page.
info: Increasing stack size by one page.
info: Increasing stack size by one page.
info: Increasing stack size by one page.
info: Increasing stack size by one page.
info: Increasing stack size by one page.
info: Increasing stack size by one page.
info: Increasing stack size by one page.
info: Increasing stack size by one page.
info: Increasing stack size by one page.
info: Increasing stack size by one page.
info: Increasing stack size by one page.
info: Increasing stack size by one page.
info: Increasing stack size by one page.
info: Increasing stack size by one page.
info: Increasing stack size by one page.
info: Increasing stack size by one page.
info: Increasing stack size by one page.
info: Increasing stack size by one page.
info: Increasing stack size by one page.
info: Increasing stack size by one page.
info: Increasing stack size by one page.
info: Increasing stack size by one page.
info: Increasing stack size by one page.
info: Increasing stack size by one page.
info: Increasing stack size by one page.
info: Increasing stack size by one page.
info: Increasing stack size by one page.
info: Increasing stack size by one page.
info: Increasing stack size by one page.
info: Increasing stack size by one page.
info: Increasing stack size by one page.
info: Increasing stack size by one page.
info: Increasing stack size by one page.
info: Increasing stack size by one page.
info: Increasing stack size by one page.
info: Increasing stack size by one page.
info: Increasing stack size by one page.
info: Increasing stack size by one page.
info: Increasing stack size by one page.
info: Increasing stack size by one page.
info: Increasing stack size by one page.
info: Increasing stack size by one page.
info: Increasing stack size by one page.
info: Increasing stack size by one page.
info: Increasing stack size by one page.
info: Increasing stack size by one page.
info: Increasing stack size by one page.
info: Increasing stack size by one page.
info: Increasing stack size by one page.
info: Increasing stack size by one page.
info: Increasing stack size by one page.
info: Increasing stack size by one page.
info: Increasing stack size by one page.
info: Increasing stack size by one page.
info: Increasing stack size by one page.
info: Increasing stack size by one page.
info: Increasing stack size by one page.
info: Increasing stack size by one page.
info: Increasing stack size by one page.
info: Increasing stack size by one page.
info: Increasing stack size by one page.
info: Increasing stack size by one page.
info: Increasing stack size by one page.
info: Increasing stack size by one page.
info: Increasing stack size by one page.
info: Increasing stack size by one page.
info: Increasing stack size by one page.
info: Increasing stack size by one page.
info: Increasing stack size by one page.
info: Increasing stack size by one page.
info: Increasing stack size by one page.
info: Increasing stack size by one page.
info: Increasing stack size by one page.
info: Increasing stack size by one page.
info: Increasing stack size by one page.
info: Increasing stack size by one page.
info: Increasing stack size by one page.
info: Increasing stack size by one page.
info: Increasing stack size by one page.
info: Increasing stack size by one page.
info: Increasing stack size by one page.
info: Increasing stack size by one page.
info: Increasing stack size by one page.
info: Increasing stack size by one page.
info: Increasing stack size by one page.
info: Increasing stack size by one page.
info: Increasing stack size by one page.
info: Increasing stack size by one page.
info: Increasing stack size by one page.
info: Increasing stack size by one page.
info: Increasing stack size by one page.
info: Increasing stack size by one page.
info: Increasing stack size by one page.
info: Increasing stack size by one page.
info: Increasing stack size by one page.
info: Increasing stack size by one page.
info: Increasing stack size by one page.
info: Increasing stack size by one page.
info: Increasing stack size by one page.
info: Increasing stack size by one page.
info: Increasing stack size by one page.
info: Increasing stack size by one page.
info: Increasing stack size by one page.
info: Increasing stack size by one page.
info: Increasing stack size by one page.
info: Increasing stack size by one page.
info: Increasing stack size by one page.
info: Increasing stack size by one page.
info: Increasing stack size by one page.
info: Increasing stack size by one page.
info: Increasing stack size by one page.
info: Increasing stack size by one page.
info: Increasing stack size by one page.
info: Increasing stack size by one page.
info: Increasing stack size by one page.
info: Increasing stack size by one page.
info: Increasing stack size by one page.
info: Increasing stack size by one page.
info: Increasing stack size by one page.
info: Increasing stack size by one page.
info: Increasing stack size by one page.
info: Increasing stack size by one page.
info: Increasing stack size by one page.
info: Increasing stack size by one page.
info: Increasing stack size by one page.
info: Increasing stack size by one page.
info: Increasing stack size by one page.
info: Increasing stack size by one page.
info: Increasing stack size by one page.
info: Increasing stack size by one page.
info: Increasing stack size by one page.
info: Increasing stack size by one page.
info: Increasing stack size by one page.
info: Increasing stack size by one page.
info: Increasing stack size by one page.
info: Increasing stack size by one page.
info: Increasing stack size by one page.
info: Increasing stack size by one page.
info: Increasing stack size by one page.
info: Increasing stack size by one page.
info: Increasing stack size by one page.
info: Increasing stack size by one page.
info: Increasing stack size by one page.
info: Increasing stack size by one page.
info: Increasing stack size by one page.
info: Increasing stack size by one page.
info: Increasing stack size by one page.
info: Increasing stack size by one page.
info: Increasing stack size by one page.
info: Increasing stack size by one page.
info: Increasing stack size by one page.
info: Increasing stack size by one page.
info: Increasing stack size by one page.
info: Increasing stack size by one page.
info: Increasing stack size by one page.
info: Increasing stack size by one page.
info: Increasing stack size by one page.
info: Increasing stack size by one page.
info: Increasing stack size by one page.
info: Increasing stack size by one page.
info: Increasing stack size by one page.
info: Increasing stack size by one page.
info: Increasing stack size by one page.
info: Increasing stack size by one page.
info: Increasing stack size by one page.
info: Increasing stack size by one page.
info: Increasing stack size by one page.
info: Increasing stack size by one page.
info: Increasing stack size by one page.
info: Increasing stack size by one page.
info: Increasing stack size by one page.
info: Increasing stack size by one page.
info: Increasing stack size by one page.
info: Increasing stack size by one page.
info: Increasing stack size by one page.
info: Increasing stack size by one page.
info: Increasing stack size by one page.
info: Increasing stack size by one page.
info: Increasing stack size by one page.
info: Increasing stack size by one page.
info: Increasing stack size by one page.
info: Increasing stack size by one page.
info: Increasing stack size by one page.
info: Increasing stack size by one page.
info: Increasing stack size by one page.
info: Increasing stack size by one page.
info: Increasing stack size by one page.
info: Increasing stack size by one page.
info: Increasing stack size by one page.
info: Increasing stack size by one page.
info: Increasing stack size by one page.
info: Increasing stack size by one page.
info: Increasing stack size by one page.
info: Increasing stack size by one page.
info: Increasing stack size by one page.
info: Increasing stack size by one page.
info: Increasing stack size by one page.
info: Increasing stack size by one page.
info: Increasing stack size by one page.
info: Increasing stack size by one page.
info: Increasing stack size by one page.
info: Increasing stack size by one page.
info: Increasing stack size by one page.
info: Increasing stack size by one page.
info: Increasing stack size by one page.
info: Increasing stack size by one page.
info: Increasing stack size by one page.
info: Increasing stack size by one page.
info: Increasing stack size by one page.
info: Increasing stack size by one page.
info: Increasing stack size by one page.
info: Increasing stack size by one page.
info: Increasing stack size by one page.
info: Increasing stack size by one page.
info: Increasing stack size by one page.
info: Increasing stack size by one page.
info: Increasing stack size by one page.
info: Increasing stack size by one page.
info: Increasing stack size by one page.
info: Increasing stack size by one page.
info: Increasing stack size by one page.
info: Increasing stack size by one page.
info: Increasing stack size by one page.
info: Increasing stack size by one page.
info: Increasing stack size by one page.
info: Increasing stack size by one page.
info: Increasing stack size by one page.
info: Increasing stack size by one page.
info: Increasing stack size by one page.
info: Increasing stack size by one page.
info: Increasing stack size by one page.
info: Increasing stack size by one page.
info: Increasing stack size by one page.
info: Increasing stack size by one page.
info: Increasing stack size by one page.
info: Increasing stack size by one page.
info: Increasing stack size by one page.
info: Increasing stack size by one page.
info: Increasing stack size by one page.
info: Increasing stack size by one page.
info: Increasing stack size by one page.
info: Increasing stack size by one page.
info: Increasing stack size by one page.
info: Increasing stack size by one page.
info: Increasing stack size by one page.
info: Increasing stack size by one page.
info: Increasing stack size by one page.
info: Increasing stack size by one page.
info: Increasing stack size by one page.
info: Increasing stack size by one page.
info: Increasing stack size by one page.
info: Increasing stack size by one page.
info: Increasing stack size by one page.
info: Increasing stack size by one page.
info: Increasing stack size by one page.
info: Increasing stack size by one page.
info: Increasing stack size by one page.
info: Increasing stack size by one page.
info: Increasing stack size by one page.
info: Increasing stack size by one page.
info: Increasing stack size by one page.
info: Increasing stack size by one page.
info: Increasing stack size by one page.
info: Increasing stack size by one page.
info: Increasing stack size by one page.
info: Increasing stack size by one page.
info: Increasing stack size by one page.
info: Increasing stack size by one page.
info: Increasing stack size by one page.
info: Increasing stack size by one page.
info: Increasing stack size by one page.
info: Increasing stack size by one page.
info: Increasing stack size by one page.
info: Increasing stack size by one page.
info: Increasing stack size by one page.
info: Increasing stack size by one page.
info: Increasing stack size by one page.
info: Increasing stack size by one page.
info: Increasing stack size by one page.
info: Increasing stack size by one page.
info: Increasing stack size by one page.
info: Increasing stack size by one page.
info: Increasing stack size by one page.
info: Increasing stack size by one page.
info: Increasing stack size by one page.
info: Increasing stack size by one page.
info: Increasing stack size by one page.
info: Increasing stack size by one page.
info: Increasing stack size by one page.
info: Increasing stack size by one page.
info: Increasing stack size by one page.
info: Increasing stack size by one page.
info: Increasing stack size by one page.
info: Increasing stack size by one page.
info: Increasing stack size by one page.
info: Increasing stack size by one page.
info: Increasing stack size by one page.
info: Increasing stack size by one page.
info: Increasing stack size by one page.
info: Increasing stack size by one page.
info: Increasing stack size by one page.
info: Increasing stack size by one page.
info: Increasing stack size by one page.
info: Increasing stack size by one page.
info: Increasing stack size by one page.
info: Increasing stack size by one page.
info: Increasing stack size by one page.
info: Increasing stack size by one page.
info: Increasing stack size by one page.
info: Increasing stack size by one page.
info: Increasing stack size by one page.
info: Increasing stack size by one page.
info: Increasing stack size by one page.
info: Increasing stack size by one page.
info: Increasing stack size by one page.
info: Increasing stack size by one page.
info: Increasing stack size by one page.
info: Increasing stack size by one page.
info: Increasing stack size by one page.
info: Increasing stack size by one page.
info: Increasing stack size by one page.
info: Increasing stack size by one page.
info: Increasing stack size by one page.
info: Increasing stack size by one page.
info: Increasing stack size by one page.
info: Increasing stack size by one page.
info: Increasing stack size by one page.
info: Increasing stack size by one page.
info: Increasing stack size by one page.
info: Increasing stack size by one page.
info: Increasing stack size by one page.
info: Increasing stack size by one page.
info: Increasing stack size by one page.
info: Increasing stack size by one page.
info: Increasing stack size by one page.
info: Increasing stack size by one page.
info: Increasing stack size by one page.
info: Increasing stack size by one page.
info: Increasing stack size by one page.
info: Increasing stack size by one page.
info: Increasing stack size by one page.
info: Increasing stack size by one page.
info: Increasing stack size by one page.
info: Increasing stack size by one page.
info: Increasing stack size by one page.
info: Increasing stack size by one page.
info: Increasing stack size by one page.
info: Increasing stack size by one page.
info: Increasing stack size by one page.
info: Increasing stack size by one page.
[...]

info: Standard input is not a terminal, disabling listeners.
Selected SPEC_CPU2006 benchmark
--> omnetpp
***USING Stride Prefetcher!***
Global frequency set at 1000000000000 ticks per second
using this cacche!!!!!!!!!!!!!##############
using this cacche!!!!!!!!!!!!!##############
using this cacche!!!!!!!!!!!!!##############
using this cacche!!!!!!!!!!!!!##############
using this cacche!!!!!!!!!!!!!##############
warn: Sockets disabled, not accepting gdb connections
**** REAL SIMULATION ****
info: Entering event queue @ 0.  Starting simulation...
warn: x86 cpuid family 0x0000: unimplemented function 7
warn: readlink() called on '/proc/self/exe' may yield unexpected results in various settings.
      Returning '/home/cc/spec2006_1/benchspec/CPU2006/471.omnetpp/exe/omnetpp_base.amd64-m64-gcc43-nn'
info: Increasing stack size by one page.
warn: ignoring syscall access(...)
OMNeT++ Discrete Event Simulation  (C) 1992-2003 Andras Varga
See the license for distribution terms and warranty disclaimer
<!> Cannot open `omnetpp.ini'.
Exiting @ tick 2725281000 because a thread reached the max instruction count
gem5 Simulator System.  http://gem5.org
gem5 is copyrighted software; use the --copyright option for details.

gem5 compiled Jun 23 2019 07:04:02
gem5 started Jun 23 2019 09:22:59
gem5 executing on gem5-new, pid 30043
command line: ./build/X86/gem5.opt configs/example/se_try.py -I 50000000 --caches --l1d_size=32kB --l1d_assoc=2 --l1i_size=32kB --l1i_assoc=2 --l2cache --l2_size=256kB --l2_assoc=8 --cacheline_size=64 --cpu-type=DerivO3CPU --mem-type=SimpleMemory --mem-size=8192MB -n 1 --maxinsts=10000000 --bench=omnetpp --prefetchers tagged

info: Standard input is not a terminal, disabling listeners.
Selected SPEC_CPU2006 benchmark
--> omnetpp
***USING Tagged Prefetcher!***
Global frequency set at 1000000000000 ticks per second
using this cacche!!!!!!!!!!!!!##############
using this cacche!!!!!!!!!!!!!##############
using this cacche!!!!!!!!!!!!!##############
using this cacche!!!!!!!!!!!!!##############
using this cacche!!!!!!!!!!!!!##############
warn: Sockets disabled, not accepting gdb connections
**** REAL SIMULATION ****
info: Entering event queue @ 0.  Starting simulation...
warn: x86 cpuid family 0x0000: unimplemented function 7
warn: readlink() called on '/proc/self/exe' may yield unexpected results in various settings.
      Returning '/home/cc/spec2006_1/benchspec/CPU2006/471.omnetpp/exe/omnetpp_base.amd64-m64-gcc43-nn'
info: Increasing stack size by one page.
warn: ignoring syscall access(...)
OMNeT++ Discrete Event Simulation  (C) 1992-2003 Andras Varga
See the license for distribution terms and warranty disclaimer
<!> Cannot open `omnetpp.ini'.
Exiting @ tick 2713220500 because a thread reached the max instruction count
gem5 Simulator System.  http://gem5.org
gem5 is copyrighted software; use the --copyright option for details.

gem5 compiled Jun 23 2019 07:04:02
gem5 started Jun 23 2019 09:23:55
gem5 executing on gem5-new, pid 30046
command line: ./build/X86/gem5.opt configs/example/se_try.py -I 50000000 --caches --l1d_size=32kB --l1d_assoc=2 --l1i_size=32kB --l1i_assoc=2 --l2cache --l2_size=256kB --l2_assoc=8 --cacheline_size=64 --cpu-type=DerivO3CPU --mem-type=SimpleMemory --mem-size=8192MB -n 1 --maxinsts=10000000 --bench=wrf

info: Standard input is not a terminal, disabling listeners.
Selected SPEC_CPU2006 benchmark
--> wrf
Global frequency set at 1000000000000 ticks per second
using this cacche!!!!!!!!!!!!!##############
using this cacche!!!!!!!!!!!!!##############
using this cacche!!!!!!!!!!!!!##############
using this cacche!!!!!!!!!!!!!##############
using this cacche!!!!!!!!!!!!!##############
warn: Sockets disabled, not accepting gdb connections
**** REAL SIMULATION ****
info: Entering event queue @ 0.  Starting simulation...
warn: x86 cpuid family 0x0000: unimplemented function 7
warn: readlink() called on '/proc/self/exe' may yield unexpected results in various settings.
      Returning '/home/cc/spec2006_1/benchspec/CPU2006/481.wrf/exe/wrf_base.amd64-m64-gcc43-nn'
info: Increasing stack size by one page.
warn: ignoring syscall access(...)
warn: instruction 'fwait' unimplemented
warn: instruction 'fnclex' unimplemented
warn: ignoring syscall rt_sigaction(...)
      (further warnings will be suppressed)
info: Increasing stack size by one page.
info: Increasing stack size by one page.
info: Increasing stack size by one page.
info: Increasing stack size by one page.
info: Increasing stack size by one page.
info: Increasing stack size by one page.
STOP wrf_abort
 -------------- FATAL CALLED ---------------
 ERROR OPENING namelist.input
 -------------------------------------------
Exiting @ tick 60881500 because exiting with last active thread context
gem5 Simulator System.  http://gem5.org
gem5 is copyrighted software; use the --copyright option for details.

gem5 compiled Jun 23 2019 07:04:02
gem5 started Jun 23 2019 09:23:56
gem5 executing on gem5-new, pid 30048
command line: ./build/X86/gem5.opt configs/example/se_try.py -I 50000000 --caches --l1d_size=32kB --l1d_assoc=2 --l1i_size=32kB --l1i_assoc=2 --l2cache --l2_size=256kB --l2_assoc=8 --cacheline_size=64 --cpu-type=DerivO3CPU --mem-type=SimpleMemory --mem-size=8192MB -n 1 --maxinsts=10000000 --bench=wrf --prefetchers stride

info: Standard input is not a terminal, disabling listeners.
Selected SPEC_CPU2006 benchmark
--> wrf
***USING Stride Prefetcher!***
Global frequency set at 1000000000000 ticks per second
using this cacche!!!!!!!!!!!!!##############
using this cacche!!!!!!!!!!!!!##############
using this cacche!!!!!!!!!!!!!##############
using this cacche!!!!!!!!!!!!!##############
using this cacche!!!!!!!!!!!!!##############
warn: Sockets disabled, not accepting gdb connections
**** REAL SIMULATION ****
info: Entering event queue @ 0.  Starting simulation...
warn: x86 cpuid family 0x0000: unimplemented function 7
warn: readlink() called on '/proc/self/exe' may yield unexpected results in various settings.
      Returning '/home/cc/spec2006_1/benchspec/CPU2006/481.wrf/exe/wrf_base.amd64-m64-gcc43-nn'
info: Increasing stack size by one page.
warn: ignoring syscall access(...)
warn: instruction 'fwait' unimplemented
warn: instruction 'fnclex' unimplemented
warn: ignoring syscall rt_sigaction(...)
      (further warnings will be suppressed)
info: Increasing stack size by one page.
info: Increasing stack size by one page.
info: Increasing stack size by one page.
info: Increasing stack size by one page.
info: Increasing stack size by one page.
info: Increasing stack size by one page.
STOP wrf_abort
 -------------- FATAL CALLED ---------------
 ERROR OPENING namelist.input
 -------------------------------------------
Exiting @ tick 55599500 because exiting with last active thread context
gem5 Simulator System.  http://gem5.org
gem5 is copyrighted software; use the --copyright option for details.

gem5 compiled Jun 23 2019 07:04:02
gem5 started Jun 23 2019 09:23:56
gem5 executing on gem5-new, pid 30050
command line: ./build/X86/gem5.opt configs/example/se_try.py -I 50000000 --caches --l1d_size=32kB --l1d_assoc=2 --l1i_size=32kB --l1i_assoc=2 --l2cache --l2_size=256kB --l2_assoc=8 --cacheline_size=64 --cpu-type=DerivO3CPU --mem-type=SimpleMemory --mem-size=8192MB -n 1 --maxinsts=10000000 --bench=wrf --prefetchers tagged

info: Standard input is not a terminal, disabling listeners.
Selected SPEC_CPU2006 benchmark
--> wrf
***USING Tagged Prefetcher!***
Global frequency set at 1000000000000 ticks per second
using this cacche!!!!!!!!!!!!!##############
using this cacche!!!!!!!!!!!!!##############
using this cacche!!!!!!!!!!!!!##############
using this cacche!!!!!!!!!!!!!##############
using this cacche!!!!!!!!!!!!!##############
warn: Sockets disabled, not accepting gdb connections
**** REAL SIMULATION ****
info: Entering event queue @ 0.  Starting simulation...
warn: x86 cpuid family 0x0000: unimplemented function 7
warn: readlink() called on '/proc/self/exe' may yield unexpected results in various settings.
      Returning '/home/cc/spec2006_1/benchspec/CPU2006/481.wrf/exe/wrf_base.amd64-m64-gcc43-nn'
info: Increasing stack size by one page.
warn: ignoring syscall access(...)
warn: instruction 'fwait' unimplemented
warn: instruction 'fnclex' unimplemented
warn: ignoring syscall rt_sigaction(...)
      (further warnings will be suppressed)
info: Increasing stack size by one page.
info: Increasing stack size by one page.
info: Increasing stack size by one page.
info: Increasing stack size by one page.
info: Increasing stack size by one page.
info: Increasing stack size by one page.
STOP wrf_abort
 -------------- FATAL CALLED ---------------
 ERROR OPENING namelist.input
 -------------------------------------------
Exiting @ tick 39308000 because exiting with last active thread context
gem5 Simulator System.  http://gem5.org
gem5 is copyrighted software; use the --copyright option for details.

gem5 compiled Jun 23 2019 07:04:02
gem5 started Jun 23 2019 09:23:57
gem5 executing on gem5-new, pid 30052
command line: ./build/X86/gem5.opt configs/example/se_try.py -I 50000000 --caches --l1d_size=32kB --l1d_assoc=2 --l1i_size=32kB --l1i_assoc=2 --l2cache --l2_size=256kB --l2_assoc=8 --cacheline_size=64 --cpu-type=DerivO3CPU --mem-type=SimpleMemory --mem-size=8192MB -n 1 --maxinsts=10000000 --bench=sphinx3

info: Standard input is not a terminal, disabling listeners.
Selected SPEC_CPU2006 benchmark
--> sphinx3
Global frequency set at 1000000000000 ticks per second
using this cacche!!!!!!!!!!!!!##############
using this cacche!!!!!!!!!!!!!##############
using this cacche!!!!!!!!!!!!!##############
using this cacche!!!!!!!!!!!!!##############
using this cacche!!!!!!!!!!!!!##############
warn: Sockets disabled, not accepting gdb connections
**** REAL SIMULATION ****
info: Entering event queue @ 0.  Starting simulation...
warn: readlink() called on '/proc/self/exe' may yield unexpected results in various settings.
      Returning '/home/cc/spec2006_1/benchspec/CPU2006/482.sphinx3/exe/sphinx_livepretend_base.amd64-m64-gcc43-nn'
info: Increasing stack size by one page.
warn: ignoring syscall access(...)
info: Increasing stack size by one page.
info: Increasing stack size by one page.
info: Increasing stack size by one page.
info: Increasing stack size by one page.
info: Increasing stack size by one page.
info: Increasing stack size by one page.
info: Increasing stack size by one page.
info: Increasing stack size by one page.
info: Increasing stack size by one page.
info: Increasing stack size by one page.
info: Increasing stack size by one page.
info: Increasing stack size by one page.
info: Increasing stack size by one page.
info: Increasing stack size by one page.
info: Increasing stack size by one page.
info: Increasing stack size by one page.
info: Increasing stack size by one page.
info: Increasing stack size by one page.
info: Increasing stack size by one page.
info: Increasing stack size by one page.
info: Increasing stack size by one page.
info: Increasing stack size by one page.
info: Increasing stack size by one page.
info: Increasing stack size by one page.
info: Increasing stack size by one page.
info: Increasing stack size by one page.
info: Increasing stack size by one page.
info: Increasing stack size by one page.
info: Increasing stack size by one page.
info: Increasing stack size by one page.
info: Increasing stack size by one page.
info: Increasing stack size by one page.
info: Increasing stack size by one page.
info: Increasing stack size by one page.
info: Increasing stack size by one page.
info: Increasing stack size by one page.
info: Increasing stack size by one page.
info: Increasing stack size by one page.
info: Increasing stack size by one page.
info: Increasing stack size by one page.
info: Increasing stack size by one page.
info: Increasing stack size by one page.
info: Increasing stack size by one page.
info: Increasing stack size by one page.
info: Increasing stack size by one page.
info: Increasing stack size by one page.
info: Increasing stack size by one page.
info: Increasing stack size by one page.
info: Increasing stack size by one page.
info: Increasing stack size by one page.
info: Increasing stack size by one page.
info: Increasing stack size by one page.
info: Increasing stack size by one page.
FATAL_ERROR: "spec_main_live_pretend.c", line 104: Can't find beams.dat
Exiting @ tick 32313500 because exiting with last active thread context
gem5 Simulator System.  http://gem5.org
gem5 is copyrighted software; use the --copyright option for details.

gem5 compiled Jun 23 2019 07:04:02
gem5 started Jun 23 2019 09:23:58
gem5 executing on gem5-new, pid 30054
command line: ./build/X86/gem5.opt configs/example/se_try.py -I 50000000 --caches --l1d_size=32kB --l1d_assoc=2 --l1i_size=32kB --l1i_assoc=2 --l2cache --l2_size=256kB --l2_assoc=8 --cacheline_size=64 --cpu-type=DerivO3CPU --mem-type=SimpleMemory --mem-size=8192MB -n 1 --maxinsts=10000000 --bench=sphinx3 --prefetchers stride

info: Standard input is not a terminal, disabling listeners.
Selected SPEC_CPU2006 benchmark
--> sphinx3
***USING Stride Prefetcher!***
Global frequency set at 1000000000000 ticks per second
using this cacche!!!!!!!!!!!!!##############
using this cacche!!!!!!!!!!!!!##############
using this cacche!!!!!!!!!!!!!##############
using this cacche!!!!!!!!!!!!!##############
using this cacche!!!!!!!!!!!!!##############
warn: Sockets disabled, not accepting gdb connections
**** REAL SIMULATION ****
info: Entering event queue @ 0.  Starting simulation...
warn: readlink() called on '/proc/self/exe' may yield unexpected results in various settings.
      Returning '/home/cc/spec2006_1/benchspec/CPU2006/482.sphinx3/exe/sphinx_livepretend_base.amd64-m64-gcc43-nn'
info: Increasing stack size by one page.
warn: ignoring syscall access(...)
info: Increasing stack size by one page.
info: Increasing stack size by one page.
info: Increasing stack size by one page.
info: Increasing stack size by one page.
info: Increasing stack size by one page.
info: Increasing stack size by one page.
info: Increasing stack size by one page.
info: Increasing stack size by one page.
info: Increasing stack size by one page.
info: Increasing stack size by one page.
info: Increasing stack size by one page.
info: Increasing stack size by one page.
info: Increasing stack size by one page.
info: Increasing stack size by one page.
info: Increasing stack size by one page.
info: Increasing stack size by one page.
info: Increasing stack size by one page.
info: Increasing stack size by one page.
info: Increasing stack size by one page.
info: Increasing stack size by one page.
info: Increasing stack size by one page.
info: Increasing stack size by one page.
info: Increasing stack size by one page.
info: Increasing stack size by one page.
info: Increasing stack size by one page.
info: Increasing stack size by one page.
info: Increasing stack size by one page.
info: Increasing stack size by one page.
info: Increasing stack size by one page.
info: Increasing stack size by one page.
info: Increasing stack size by one page.
info: Increasing stack size by one page.
info: Increasing stack size by one page.
info: Increasing stack size by one page.
info: Increasing stack size by one page.
info: Increasing stack size by one page.
info: Increasing stack size by one page.
info: Increasing stack size by one page.
info: Increasing stack size by one page.
info: Increasing stack size by one page.
info: Increasing stack size by one page.
info: Increasing stack size by one page.
info: Increasing stack size by one page.
info: Increasing stack size by one page.
info: Increasing stack size by one page.
info: Increasing stack size by one page.
info: Increasing stack size by one page.
info: Increasing stack size by one page.
info: Increasing stack size by one page.
info: Increasing stack size by one page.
info: Increasing stack size by one page.
info: Increasing stack size by one page.
info: Increasing stack size by one page.
FATAL_ERROR: "spec_main_live_pretend.c", line 104: Can't find beams.dat
Exiting @ tick 30639500 because exiting with last active thread context
gem5 Simulator System.  http://gem5.org
gem5 is copyrighted software; use the --copyright option for details.

gem5 compiled Jun 23 2019 07:04:02
gem5 started Jun 23 2019 09:23:58
gem5 executing on gem5-new, pid 30056
command line: ./build/X86/gem5.opt configs/example/se_try.py -I 50000000 --caches --l1d_size=32kB --l1d_assoc=2 --l1i_size=32kB --l1i_assoc=2 --l2cache --l2_size=256kB --l2_assoc=8 --cacheline_size=64 --cpu-type=DerivO3CPU --mem-type=SimpleMemory --mem-size=8192MB -n 1 --maxinsts=10000000 --bench=sphinx3 --prefetchers tagged

info: Standard input is not a terminal, disabling listeners.
Selected SPEC_CPU2006 benchmark
--> sphinx3
***USING Tagged Prefetcher!***
Global frequency set at 1000000000000 ticks per second
using this cacche!!!!!!!!!!!!!##############
using this cacche!!!!!!!!!!!!!##############
using this cacche!!!!!!!!!!!!!##############
using this cacche!!!!!!!!!!!!!##############
using this cacche!!!!!!!!!!!!!##############
warn: Sockets disabled, not accepting gdb connections
**** REAL SIMULATION ****
info: Entering event queue @ 0.  Starting simulation...
warn: readlink() called on '/proc/self/exe' may yield unexpected results in various settings.
      Returning '/home/cc/spec2006_1/benchspec/CPU2006/482.sphinx3/exe/sphinx_livepretend_base.amd64-m64-gcc43-nn'
info: Increasing stack size by one page.
warn: ignoring syscall access(...)
info: Increasing stack size by one page.
info: Increasing stack size by one page.
info: Increasing stack size by one page.
info: Increasing stack size by one page.
info: Increasing stack size by one page.
info: Increasing stack size by one page.
info: Increasing stack size by one page.
info: Increasing stack size by one page.
info: Increasing stack size by one page.
info: Increasing stack size by one page.
info: Increasing stack size by one page.
info: Increasing stack size by one page.
info: Increasing stack size by one page.
info: Increasing stack size by one page.
info: Increasing stack size by one page.
info: Increasing stack size by one page.
info: Increasing stack size by one page.
info: Increasing stack size by one page.
info: Increasing stack size by one page.
info: Increasing stack size by one page.
info: Increasing stack size by one page.
info: Increasing stack size by one page.
info: Increasing stack size by one page.
info: Increasing stack size by one page.
info: Increasing stack size by one page.
info: Increasing stack size by one page.
info: Increasing stack size by one page.
info: Increasing stack size by one page.
info: Increasing stack size by one page.
info: Increasing stack size by one page.
info: Increasing stack size by one page.
info: Increasing stack size by one page.
info: Increasing stack size by one page.
info: Increasing stack size by one page.
info: Increasing stack size by one page.
info: Increasing stack size by one page.
info: Increasing stack size by one page.
info: Increasing stack size by one page.
info: Increasing stack size by one page.
info: Increasing stack size by one page.
info: Increasing stack size by one page.
info: Increasing stack size by one page.
info: Increasing stack size by one page.
info: Increasing stack size by one page.
info: Increasing stack size by one page.
info: Increasing stack size by one page.
info: Increasing stack size by one page.
info: Increasing stack size by one page.
info: Increasing stack size by one page.
info: Increasing stack size by one page.
info: Increasing stack size by one page.
FATAL_ERROR: "spec_main_live_pretend.c", line 104: Can't find beams.dat
Exiting @ tick 20261500 because exiting with last active thread context
